* CL10A104KA8NNN Multilayer Ceramic Capacitor Spice Model
*-----------------------------------------------------------------------------------------------
* Model Generated by Samsung Electro-Mechanics
* Samsung Spice Model Version 4.0
* Products : Multilayer Ceramic Capacitor(General)
*-----------------------------------------------------------------------------------------------
* Characteristics :
*
*     Nominal Capacitance = 100nF
*     Capacitance Tolerance = +/-10%
*     TCC = X5R(-55 ~ +85 Cels.)
*     Rated Voltage = 25Vdc
*     Size = 0603(unit:inch), 1608(unit:mm)
*     Length = 1.60 +/-0.10 mm
*     Width = 0.80 +/-0.10 mm
*     Thickness = 0.80 +/-0.10 mm
*     Measurement Temperature : 25Cels.
*     DC bias Value = 0V
*     Frequency : 300Hz ~ 6GHz
*-----------------------------------------------------------------------------------------------
* External Node Assignments :
*
*  1  o---||---o  2
*
*-----------------------------------------------------------------------------------------------
.SUBCKT CL10A104KA8NNN 1 2
C1 1 3 9.59601e-8
C16 17 18 6.98399e-6
C17 18 19 8.27540e-4
C18 19 20 4.69954e-4
C19 20 21 3.61727e-4
C2 3 4 2.76977e-6
C20 21 22 2.53302e-4
C21 22 23 2.53302e-4
C22 23 24 2.53302e-4
C23 24 25 2.96704e-7
C24 25 26 3.82979e-8
C25 26 27 2.53302e-4
C26 27 28 8.30709e-12
C27 28 2 2.53302e-4
C3 4 5 3.96568e-6
C4 5 6 4.10262e-6
C5 6 7 3.67915e-6
C6 7 8 9.09380e-7
C7 8 9 1.00000e-10
C8 9 10 1.00000e-10
R1 1 3 1.00000e+8
R11 12 13 1.24671e-1
R12 13 14 9.99999e-7
R13 14 15 9.99999e-7
R14 15 16 9.99999e-7
R15 16 17 9.99999e-7
R16 17 18 1.37816e-2
R17 18 19 4.03228e-4
R18 19 20 2.21878e-3
R19 20 21 3.04449e-4
R2 3 4 3.54607e+2
R20 21 22 9.99999e-7
R21 22 23 9.99999e-7
R22 23 24 9.99999e-7
R23 24 25 2.16493e-2
R24 25 26 4.21919e-2
R25 26 27 9.99999e-7
R26 27 28 5.71561
R27 28 2 9.99999e-7
R3 4 5 1.96622e+1
R4 5 6 2.24922
R5 6 7 1.75514e-1
R6 7 8 9.04907e-3
R7 8 9 9.99999e-7
R8 9 10 9.99999e-7
R9 10 11 1.28712e-2
L10 11 12 1.49110e-10
L11 12 13 9.40658e-11
L12 13 14 1.00000e-10
L13 14 15 1.00000e-10
L14 15 16 1.00000e-10
L15 16 17 1.00000e-10
L16 17 18 4.31845e-9
L17 18 19 1.53165e-11
L18 19 20 1.10715e-11
L19 20 21 7.49526e-12
L20 21 22 1.00000e-10
L21 22 23 1.00000e-10
L22 23 24 1.00000e-10
L23 24 25 2.93492e-11
L24 25 26 7.90513e-11
L25 26 27 1.00000e-10
L26 27 28 8.72938e-11
L27 28 2 1.00000e-10
.ENDS CL10A104KA8NNN