* CL10A105KA8NNN Multilayer Ceramic Capacitor Spice Model
*-----------------------------------------------------------------------------------------------
* Model Generated by Samsung Electro-Mechanics
* Samsung Spice Model Version 5.0
* Date : Sep-25-2020
* Products : Multilayer Ceramic Capacitor(General)
*-----------------------------------------------------------------------------------------------
* Characteristics :
*
*     Nominal Capacitance = 1uF
*     Capacitance Tolerance = +/-10%
*     TCC = X5R(-55 ~ +85 degC.)
*     Rated Voltage = 25Vdc
*     Size = 0603(unit:inch), 1608(unit:mm)
*     Length = 1.60+/-0.10mm
*     Width = 0.80+/-0.10mm
*     Thickness = 0.80+/-0.10mm
*     Measurement Temperature : 25degC.
*     DC bias Value = 0V
*     Frequency : 100Hz ~ 6GHz
*-----------------------------------------------------------------------------------------------
* External Node Assignments :
*
*  1  o---||---o  2
*
*-----------------------------------------------------------------------------------------------
.SUBCKT CL10A105KA8NNN_Simple_DC0V_25degC 1 2
C1 1 3 8.85756E-7
L1 4 2 2.36754E-10
R1 1 3 1.0E8
R2 3 4 0.00889
.ENDS CL10A105KA8NNN_Simple_DC0V_25degC