* CL10A475KA8NQN Multilayer Ceramic Capacitor Spice Model
*-----------------------------------------------------------------------------------------------
* Model Generated by Samsung Electro-Mechanics
* Samsung Spice Model Version 4.0
* Products : Multilayer Ceramic Capacitor(General)
*-----------------------------------------------------------------------------------------------
* Characteristics :
*
*     Nominal Capacitance = 4.7uF
*     Capacitance Tolerance = +/-10%
*     TCC = X5R(-55 ~ +85 Cels.)
*     Rated Voltage = 25Vdc
*     Size = 0603(unit:inch), 1608(unit:mm)
*     Length = 1.60 +/-0.15 mm
*     Width = 0.80 +/-0.15 mm
*     Thickness = 0.80 +/-0.15 mm
*     Measurement Temperature : 25Cels.
*     DC bias Value = 0V
*     Frequency : 10000Hz ~ 6GHz
*-----------------------------------------------------------------------------------------------
* External Node Assignments :
*
*  1  o---||---o  2
*
*-----------------------------------------------------------------------------------------------
.SUBCKT CL10A475KA8NQN 1 2
C00 1 3 4.01614e-6
C01 3 4 6.19723e-5
C02 4 5 1.18458e-4
C03 5 6 1.12858e-4
C04 6 7 1.32134e-4
C05 7 8 4.71917e-5
C51 14 15 4.51000e-4
C52 15 16 1.66735e-4
C53 16 17 3.03159e-4
C54 17 18 4.75625e-4
C55 18 19 7.30584e-4
C56 19 20 1.41513e-5
C57 20 21 6.07288e-6
C58 21 22 1.99075e-6
C59 22 23 4.35893e-8
C60 24 2 3.19897e-11
L10 9 10 9.49999e-11
L11 10 11 3.29999e-10
L12 11 12 1.34999e-10
L13 12 13 5.99999e-11
L14 13 14 3.99999e-11
L51 14 15 3.26894e-11
L52 15 16 3.18067e-11
L53 16 17 1.59703e-11
L54 17 18 3.98261e-12
L55 18 19 1.79968e-12
L56 19 20 3.99999e-11
L57 20 21 3.99999e-11
L58 21 22 3.99999e-11
L59 22 23 2.99999e-11
L60 23 2 3.50000e-11
R00 1 3 1.00000e+8
R01 3 4 1.00337e+1
R02 4 5 9.57392e-1
R03 5 6 9.70300e-2
R04 6 7 1.60838e-2
R05 7 8 5.61464e-3
R100 8 9 3.51156e-3
R11 10 11 4.79213e-3
R12 11 12 3.48866e-2
R13 12 13 1.37218e-1
R14 13 14 1.57171
R51 14 15 4.09368e-5
R52 15 16 3.97006e-6
R53 16 17 1.01448e-4
R54 17 18 1.82927e-6
R55 18 19 4.24437e-5
R56 19 20 4.19127e-3
R57 20 21 4.69459e-3
R58 21 22 5.18343e-3
R59 22 23 6.43118e-3
R60 23 24 6.84673e-1
.ENDS CL10A475KA8NQN