* CL10A105KA8NNN Multilayer Ceramic Capacitor Spice Model
*-----------------------------------------------------------------------------------------------
* Model Generated by Samsung Electro-Mechanics
* Samsung Spice Model Version 5.0
* Date : Sep-25-2020
* Products : Multilayer Ceramic Capacitor(General)
*-----------------------------------------------------------------------------------------------
* Characteristics :
*
*     Nominal Capacitance = 1uF
*     Capacitance Tolerance = +/-10%
*     TCC = X5R(-55 ~ +85 degC.)
*     Rated Voltage = 25Vdc
*     Size = 0603(unit:inch), 1608(unit:mm)
*     Length = 1.60+/-0.10mm
*     Width = 0.80+/-0.10mm
*     Thickness = 0.80+/-0.10mm
*     Measurement Temperature : 25degC.
*     DC bias Value = 0V
*     Frequency : 100Hz ~ 6GHz
*-----------------------------------------------------------------------------------------------
* External Node Assignments :
*
*  1  o---||---o  2
*
*-----------------------------------------------------------------------------------------------
.SUBCKT CL10A105KA8NNN_Precise_DC0V_25degC 1 2
C1 1 3 9.81768E-7
C2 3 4 4.26494E-5
C3 4 5 5.24838E-5
C4 5 6 5.36110E-5
C5 6 7 5.17758E-5
C6 7 8 6.47178E-5
C7 8 9 2.58885E-5
C8 9 10 4.99608E-5
C16 17 18 0.00160
C17 18 19 3.40867E-4
C18 19 20 1.21735E-4
C19 20 21 4.10383E-4
C20 21 22 2.53303E-4
C21 22 23 2.53303E-4
C22 23 24 2.53303E-4
C23 24 25 3.18823E-6
C24 25 26 2.50537E-6
C25 26 27 2.44127E-7
C26 27 28 1.31673E-11
C27 28 2 2.53303E-4
L10 11 12 1.23456E-10
L11 12 13 1.41247E-10
L12 13 14 3.40706E-11
L13 14 15 1.0E-10
L14 15 16 1.0E-10
L15 16 17 1.0E-10
L16 17 18 7.76171E-12
L17 18 19 1.39596E-11
L18 19 20 1.37246E-11
L19 20 21 2.53590E-12
L20 21 22 1.0E-10
L21 22 23 1.0E-10
L22 23 24 1.0E-10
L23 24 25 4.14291E-11
L24 25 26 2.60904E-11
L25 26 27 8.65153E-11
L26 27 28 4.59150E-11
L27 28 2 1.0E-10
R1 1 3 1.0E8
R2 3 4 172.25419
R3 4 5 15.78717
R4 5 6 2.34070
R5 6 7 0.36425
R6 7 8 0.04043
R7 8 9 0.00136
R8 9 10 0.01088
R9 10 11 0.00573
R11 12 13 0.06513
R12 13 14 0.12384
R13 14 15 1.0E-6
R14 15 16 1.0E-6
R15 16 17 1.0E-6
R16 17 18 9.35187E-5
R17 18 19 1.84109E-4
R18 19 20 3.19524E-4
R19 20 21 1.05010E-4
R20 21 22 1.0E-6
R21 22 23 1.0E-6
R22 23 24 1.0E-6
R23 24 25 0.01184
R24 25 26 0.01081
R25 26 27 0.01569
R26 27 28 3.18054
R27 28 2 1.0E-6
.ENDS CL10A105KA8NNN_Precise_DC0V_25degC